 &PACKAGES
 useOBCS=.TRUE.,
 useMNC=.TRUE.,
 useDiagnostics=.TRUE.,
 useRBCS=.TRUE.,
 &
