 &PACKAGES
 useMNC = .TRUE.,
 useDiagnostics = .TRUE.,
 &
